matlab_files/Fall116Generous.m
% Case saved by PowerWorld Simulator, version 19, build date July 14, 2016
function mpc = Fall116
mpc.version = '2';
mpc.baseMVA =  100.00;

%% bus data 
mpc.bus = [
      1 2      0.00     0.00      0.00     0.00    1 1.0282969   -23.49738  345.00   1   1.100   0.980    27.20     0.00 0  0
      2 1    101.14    28.89      0.00     0.00    1 1.0257750   -23.76219  345.00   1   1.060   0.920    27.19    -0.02 0  0
      3 2      0.00     0.00      0.00     0.00    1 1.0200000   -12.43574  138.00   1   1.100   0.980    26.35     0.00 0  0
      4 1     73.78    19.06      0.00     0.00    1 0.9806018   -25.03966  138.00   1   1.060   0.920    27.17    -0.01 0  0
      5 1     86.85    32.86      0.00     0.00    1 0.9856026   -22.41228  230.00   1   1.060   0.920    27.16    -0.00 0  0
      6 1     78.70    25.57      0.00     0.00    1 1.0115769   -11.27197  138.00   1   1.060   0.920    27.15     0.00 0  0
      7 2    133.37    53.51      0.00     0.00    1 1.0200000   -21.74623  138.00   1   1.100   0.980    27.16     0.00 0  0
      8 2    106.38    32.64      0.00     0.00    1 1.0200000   -19.83233  230.00   1   1.100   0.980    27.16     0.00 0  0
      9 1      0.00     0.00      0.00     0.00    1 1.0297939   -21.26741  345.00   1   1.060   0.920    27.16    -0.00 0  0
     10 3     80.42    22.57      0.00     0.00    1 1.0200000     0.00000  138.00   1   1.100   0.980    27.15     0.00 0  0
     11 1      0.00     0.00      0.00     0.00    1 1.0168433    -1.16001  138.00   1   1.060   0.920    27.15    -0.00 0  0
     12 1      2.40     0.76      0.00     0.00    1 1.0160854    -2.08337  138.00   1   1.060   0.920    27.15    -0.00 0  0
     13 1      0.00     0.00      0.00     0.00    1 1.0162274    -4.47436  345.00   1   1.060   0.920    27.15    -0.00 0  0
     14 1    103.76    32.50      0.00     0.00    1 1.0153250   -11.90406  230.00   1   1.060   0.920    27.15    -0.00 0  0
     15 1    124.80    30.22      0.00     0.00    1 1.0083753   -16.02010  230.00   1   1.060   0.920    27.14     0.00 0  0
     16 1    146.12    35.66      0.00     0.00    1 1.0055839   -19.24780  138.00   1   1.060   0.920    27.13    -0.00 0  0
     17 1     79.22    24.51      0.00     0.00    1 0.9834131   -21.91534  138.00   1   1.060   0.920    27.02     0.02 0  0
     18 1     90.24    23.90      0.00     0.00    1 0.9814575   -21.14136  138.00   1   1.060   0.920    26.66     0.12 0  0
     19 1     93.17    28.84      0.00     0.00    1 0.9921489   -19.66735  138.00   1   1.060   0.920    27.15    -0.00 0  0
     20 1     90.90    28.28      0.00     0.00    1 1.0016124   -16.90899   69.00   1   1.060   0.920    27.15    -0.00 0  0
     21 1    128.60    33.70      0.00     0.00    1 0.9836204   -22.59254  138.00   1   1.060   0.920    27.14    -0.00 0  0
     22 1    114.81    36.41      0.00     0.00    1 0.9942835    -8.29384  230.00   1   1.060   0.920    27.15    -0.00 0  0
     23 1     87.45    25.48      0.00     0.00    1 0.9972585   -10.59002  230.00   1   1.060   0.920    27.15    -0.00 0  0
     24 2    104.88    36.58      0.00     0.00    1 1.0200000   -13.68244  230.00   1   1.100   0.980    27.15     0.00 0  0
     25 1     69.89    16.85      0.00     0.00    1 1.0069781   -23.90852  230.00   1   1.060   0.920    27.17    -0.00 0  0
     26 2     85.95    23.64      0.00     0.00    1 1.0200000   -33.95984  345.00   1   1.100   0.980    27.16     0.00 0  0
     27 1     89.44    24.75      0.00     0.00    1 0.9905576   -32.11352  230.00   1   1.060   0.920    27.15     0.00 0  0
     28 2    130.99    37.20      0.00     0.00    1 1.0200000   -27.96100  138.00   1   1.100   0.980    27.15     0.00 0  0
     29 1     81.99    22.32      0.00     0.00    1 1.0155653   -25.78425  138.00   1   1.060   0.920    27.15     0.00 0  0
     30 2      0.00     0.00      0.00     0.00    1 1.0200000   -22.05284   14.00   1   1.100   0.980    27.19     0.00 0  0
     31 2      0.00     0.00      0.00     0.00    1 1.0200000    -6.65181   14.00   1   1.100   0.980    27.15     0.00 0  0
     32 2      0.00     0.00      0.00     0.00    1 1.0200000     2.47732   14.00   1   1.100   0.980    27.15     0.00 0  0
     33 2    120.54    31.86      0.00     0.00    1 1.0200000   -16.50738   14.00   1   1.100   0.980    27.15     0.00 0  0
     34 2     74.86    23.10      0.00     0.00    1 1.0200000   -13.60391   14.00   1   1.100   0.980    27.15     0.00 0  0
     35 2      0.00     0.00      0.00     0.00    1 1.0200000     2.05978   14.00   1   1.100   0.980    27.15     0.00 0  0
     36 2      0.00     0.00      0.00     0.00    1 1.0200000    -7.65432   14.00   1   1.100   0.980    27.15     0.00 0  0
     37 2      0.00     0.00      0.00     0.00    1 1.0200000   -22.14167   14.00   1   1.100   0.980    27.17     0.00 0  0
     38 2      0.00     0.00      0.00     0.00    1 1.0200000   -23.31677   14.00   1   1.100   0.980    27.15     0.00 0  0
     39 1     79.83    24.25      0.00     0.00    1 1.0182515   -31.11112  345.00   1   1.060   0.920    27.17    -0.01 0  0
     40 1     81.74    27.05      0.00     0.00    1 1.0099198   -35.21880  345.00   1   1.060   0.920    27.16    -0.00 0  0
     41 1    106.76    28.18      0.00     0.00    1 0.9943787   -31.43901  345.00   1   1.060   0.920    27.14     0.00 0  0
     42 1    118.30    33.69      0.00     0.00    1 1.0197488   -37.06787  345.00   1   1.060   0.920    27.16    -0.00 0  0
     43 1    105.39    31.87      0.00     0.00    1 1.0164185   -34.19307  345.00   1   1.060   0.920    27.16    -0.00 0  0
     44 1     75.13    21.52      0.00     0.00    1 1.0097273   -23.36166  230.00   1   1.060   0.920    27.16    -0.00 0  0
     45 1    107.53    29.35      0.00     0.00    1 1.0158406   -23.09447  345.00   1   1.060   0.920    27.17    -0.00 0  0
     46 1     96.55    29.27      0.00     0.00    1 0.9654179   -25.19051  138.00   1   1.060   0.920    27.16    -0.00 0  0
     47 1     87.12    26.36      0.00     0.00    1 0.9305410   -28.62061  138.00   1   1.060   0.920    27.16    -0.00 0  0
     48 1    104.22    33.89      0.00     0.00    1 0.9788767   -25.55682  345.00   1   1.060   0.920    27.17    -0.01 0  0
     49 2     68.74    23.86      0.00     0.00    1 1.0200000   -19.25952  138.00   1   1.100   0.980    27.16     0.00 0  0
     50 1    101.21    29.17      0.00     0.00    1 0.9885376   -24.25194  138.00   1   1.060   0.920    27.17    -0.00 0  0
     51 1     85.55    29.92      0.00     0.00    1 1.0010826   -28.27090  138.00   1   1.060   0.920    27.16    -0.00 0  0
     52 2    108.95    33.16      0.00     0.00    1 1.0200000   -22.85145  345.00   1   1.100   0.980    27.17     0.00 0  0
     53 1    157.78    40.55      0.00     0.00    1 0.9875212   -27.29670  138.00   1   1.060   0.920    27.16    -0.00 0  0
     54 2     74.31    30.04      0.00     0.00    1 1.0200000   -19.23529  230.00   1   1.100   0.980    27.16     0.00 0  0
     55 1    103.82    28.82      0.00     0.00    1 1.0080184   -22.63220  230.00   1   1.060   0.920    27.16    -0.00 0  0
     56 2    115.95    34.09      0.00     0.00    1 1.0200000   -11.79133  345.00   1   1.100   0.980    27.14     0.00 0  0
     57 1     64.33    21.01      0.00     0.00    1 0.9562876   -27.07322  138.00   1   1.060   0.920    27.16    -0.00 0  0
     58 1    131.28    45.31      0.00     0.00    1 1.0010310   -12.81870  345.00   1   1.060   0.920    27.15    -0.00 0  0
     59 1     83.07    30.83      0.00     0.00    1 1.0129755   -15.16778  345.00   1   1.060   0.920    27.14     0.00 0  0
     60 1     94.14    31.01      0.00     0.00    1 0.9559387   -24.99981  138.00   1   1.060   0.920    27.16    -0.00 0  0
     61 1    111.43    36.83      0.00     0.00    1 1.0126909   -17.82926  230.00   1   1.060   0.920    27.14     0.00 0  0
     62 1    103.81    32.50      0.00     0.00    1 0.9947979   -13.67370  345.00   1   1.060   0.920    27.15    -0.00 0  0
     63 1     81.22    26.80      0.00     0.00    1 0.9482448   -26.77505  138.00   1   1.060   0.920    27.16    -0.01 0  0
     64 1    166.54    46.90      0.00     0.00    1 0.9706007   -19.35767  138.00   1   1.060   0.920    27.15    -0.00 0  0
     65 1     71.11    22.37      0.00     0.00    1 1.0000983   -22.49641  138.00   1   1.060   0.920    27.16    -0.00 0  0
     66 1     81.73    24.42      0.00     0.00    1 1.0047771   -12.60815  345.00   1   1.060   0.920    27.15    -0.00 0  0
     67 1     95.20    28.79      0.00     0.00    1 0.9845240   -28.27134  138.00   1   1.060   0.920    27.16    -0.00 0  0
     68 1    113.33    32.82      0.00     0.00    1 0.9952602   -26.84330  138.00   1   1.060   0.920    27.16    -0.00 0  0
     69 2     65.86    23.30      0.00     0.00    1 1.0200000    -4.63308  345.00   1   1.100   0.980    27.15     0.00 0  0
     70 1     90.39    31.29      0.00     0.00    1 1.0084804    -6.71990  138.00   1   1.060   0.920    27.15     0.00 0  0
     71 1     71.60    26.14      0.00     0.00    1 1.0105641   -12.03021  345.00   1   1.060   0.920    27.15    -0.00 0  0
     72 2     63.64    22.99      0.00     0.00    1 1.0050154   -28.20352  138.00   1   1.100   0.980    27.16    -0.00 0  0
     73 1     76.78    27.07      0.00     0.00    1 1.0015315   -28.27530  138.00   1   1.060   0.920    27.16    -0.00 0  0
     74 1     83.92    23.47      0.00     0.00    1 0.9942451   -23.12115  345.00   1   1.060   0.920    27.17    -0.01 0  0
     75 1     88.73    29.74      0.00     0.00    1 0.9713334   -25.44608  138.00   1   1.060   0.920    27.17    -0.01 0  0
     76 2    117.57    28.34      0.00     0.00    1 1.0200000   -11.01439  345.00   1   1.100   0.980    27.15     0.00 0  0
     77 1     84.45    24.46      0.00     0.00    1 0.9937584   -31.99008  138.00   1   1.060   0.920    27.15     0.00 0  0
     78 2    103.33    28.95      0.00     0.00    1 1.0200000   -38.27766  345.00   1   1.100   0.980    27.15     0.00 0  0
     79 1    132.39    37.15      0.00     0.00    1 1.0382708   -45.94461  345.00   1   1.060   0.920    27.15    -0.00 0  0
     80 2    109.58    27.08      0.00     0.00    1 1.0200000   -41.35639  345.00   1   1.100   0.980    27.15     0.00 0  0
     81 1    116.90    29.21      0.00     0.00    1 1.0164290   -39.50198  345.00   1   1.060   0.920    27.15     0.00 0  0
     82 2     81.71    25.08      0.00     0.00    1 1.0200000   -33.62633  345.00   1   1.100   0.980    27.15     0.00 0  0
     83 1     86.23    28.10      0.00     0.00    1 1.0206332   -32.60313  345.00   1   1.060   0.920    27.15     0.00 0  0
     84 2     67.17    19.07      0.00     0.00    1 1.0200000   -29.24758  138.00   1   1.100   0.980    27.15     0.00 0  0
     85 1     74.77    23.53      0.00     0.00    1 0.9926320   -31.34480  230.00   1   1.060   0.920    27.15     0.00 0  0
     86 1    113.06    31.84      0.00     0.00    1 0.9859933   -30.51011  138.00   1   1.060   0.920    27.15     0.00 0  0
     87 1    126.17    37.43      0.00     0.00    1 1.0433366   -46.13048  345.00   1   1.060   0.920    27.15     0.00 0  0
     88 1    100.93    33.54      0.00     0.00    1 1.0110896   -29.11454  138.00   1   1.060   0.920    27.15     0.00 0  0
     89 1     79.34    24.47      0.00     0.00    1 0.9529814   -36.55138  138.00   1   1.060   0.920    27.15     0.00 0  0
     90 1     73.48    27.59      0.00     0.00    1 0.9867031   -11.35762  230.00   1   1.060   0.920    27.15    -0.00 0  0
     91 1     88.10    25.71      0.00     0.00    1 0.9727367   -13.26145  230.00   1   1.060   0.920    27.15    -0.00 0  0
     92 1     83.02    25.94      0.00     0.00    1 0.9820966   -13.56383  345.00   1   1.060   0.920    27.15    -0.00 0  0
     93 1     92.61    25.61      0.00     0.00    1 0.9851270   -14.92984  345.00   1   1.060   0.920    27.15    -0.00 0  0
     94 1    114.47    35.42      0.00     0.00    1 0.9924002   -21.57034  138.00   1   1.060   0.920    27.15    -0.00 0  0
     95 1    103.89    31.03      0.00     0.00    1 0.9806678   -20.90778  138.00   1   1.060   0.920    27.15    -0.00 0  0
     96 1    118.54    32.05      0.00     0.00    1 0.9816713   -20.41402  138.00   1   1.060   0.920    27.15    -0.00 0  0
     97 1    117.22    33.46      0.00     0.00    1 0.9942038   -17.40669  345.00   1   1.060   0.920    27.15    -0.00 0  0
     98 1    121.63    34.90      0.00     0.00    1 1.0151080   -17.63873  345.00   1   1.060   0.920    27.15     0.00 0  0
     99 1    116.31    29.53      0.00     0.00    1 0.9866111   -19.14995  345.00   1   1.060   0.920    27.15    -0.00 0  0
    100 1     92.32    30.25      0.00     0.00    1 0.9791157   -10.13774  138.00   1   1.060   0.920    27.15    -0.00 0  0
    101 1     86.92    28.94      0.00     0.00    1 0.9820068   -15.32201  345.00   1   1.060   0.920    27.15    -0.00 0  0
    102 1     60.23    22.39      0.00     0.00    1 0.9805300   -22.32323  138.00   1   1.060   0.920    27.15    -0.00 0  0
    103 2    132.95    34.87      0.00     0.00    1 1.0200000   -19.41363  138.00   1   1.100   0.980    27.15     0.00 0  0
    104 1     98.98    26.88      0.00     0.00    1 0.9724997   -22.73837  138.00   1   1.060   0.920    27.15    -0.00 0  0
    105 1     76.03    22.91      0.00     0.00    1 0.9830487   -21.22505  138.00   1   1.060   0.920    27.15    -0.00 0  0
    106 1     76.14    27.68      0.00     0.00    1 0.9759937   -23.56306  138.00   1   1.060   0.920    27.15    -0.00 0  0
    107 1     87.57    25.51      0.00     0.00    1 0.9767943   -23.00325  138.00   1   1.060   0.920    27.15    -0.00 0  0
    108 1    140.76    36.82      0.00     0.00    1 0.9748373   -22.72489  230.00   1   1.060   0.920    27.15    -0.00 0  0
    109 1    105.98    34.74      0.00     0.00    1 0.9810037   -25.07437  138.00   1   1.060   0.920    27.15    -0.00 0  0
    110 1     61.27    23.37      0.00     0.00    1 0.9833233   -20.45155  138.00   1   1.060   0.920    27.15    -0.00 0  0
    111 1    103.14    29.71      0.00     0.00    1 0.9878359   -20.58297  345.00   1   1.060   0.920    27.15    -0.00 0  0
    112 1    136.69    37.45      0.00     0.00    1 0.9599806   -25.50730  138.00   1   1.060   0.920    27.15    -0.00 0  0
    113 1     60.10    21.12      0.00     0.00    1 0.9490190   -26.59156  138.00   1   1.060   0.920    27.15    -0.00 0  0
    114 1     62.04    21.53      0.00     0.00    1 0.9791480   -22.05349  138.00   1   1.060   0.920    27.15    -0.00 0  0
    115 1     69.25    23.93      0.00     0.00    1 0.9857509   -13.06078  345.00   1   1.060   0.920    27.15    -0.00 0  0
    116 1    123.71    32.17      0.00     0.00    1 1.0057787   -22.76151  230.00   1   1.060   0.920    27.15     0.00 0  0
    117 1     95.40    26.24      0.00     0.00    1 0.9920929   -23.59411  138.00   1   1.060   0.920    27.15    -0.00 0  0
    118 1     61.34    24.55      0.00     0.00    1 0.9817549   -21.77964  138.00   1   1.060   0.920    27.15    -0.00 0  0
    119 1    117.78    33.65      0.00     0.00    1 0.9784509   -22.59761  138.00   1   1.060   0.920    27.15    -0.00 0  0
    120 2     75.85    21.95      0.00     0.00    1 1.0200000   -22.70279  230.00   1   1.100   0.980    27.15     0.00 0  0
    121 1     90.28    24.67      0.00     0.00    1 1.0152282   -23.20399  230.00   1   1.060   0.920    27.15    -0.00 0  0
    122 1     75.79    24.35      0.00     0.00    1 0.9771247   -25.33283  138.00   1   1.060   0.920    27.15    -0.00 0  0
    123 1    107.69    32.80      0.00     0.00    1 1.0067750   -21.92523  230.00   1   1.060   0.920    27.15     0.00 0  0
    124 1    109.37    30.44      0.00     0.00    1 0.9715566   -26.41934  230.00   1   1.060   0.920    27.15    -0.00 0  0
    125 1    113.96    32.93      0.00     0.00    1 0.9756127   -24.25211  138.00   1   1.060   0.920    27.15    -0.00 0  0
    126 1     96.20    29.34      0.00     0.00    1 0.9855853   -25.48079  230.00   1   1.060   0.920    27.15    -0.00 0  0
    127 1    109.93    28.06      0.00     0.00    1 0.9795266   -26.11760  230.00   1   1.060   0.920    27.15    -0.00 0  0
    128 2    118.39    28.54      0.00     0.00    1 1.0200000   -16.14575  138.00   1   1.100   0.980    27.10     0.00 0  0
    129 1     92.30    26.43      0.00     0.00    1 0.9703762   -24.33567  138.00   1   1.060   0.920    27.15    -0.00 0  0
    130 2     96.93    29.38      0.00     0.00    1 1.0200000   -18.97562  138.00   1   1.100   0.980    27.13     0.00 0  0
    131 1    130.61    31.34      0.00     0.00    1 0.9635394   -25.47560  138.00   1   1.060   0.920    27.15    -0.00 0  0
    132 1    121.43    27.30      0.00     0.00    1 0.9869420   -23.65691  230.00   1   1.060   0.920    27.16    -0.00 0  0
    133 1     81.10    24.30      0.00     0.00    1 0.9866531   -24.66763  230.00   1   1.060   0.920    27.16    -0.00 0  0
    134 1     94.37    23.59      0.00     0.00    1 0.9815819   -23.57689  230.00   1   1.060   0.920    27.15    -0.00 0  0
    135 1     71.11    25.01      0.00     0.00    1 1.0059453   -20.41911  345.00   1   1.060   0.920    27.15    -0.00 0  0
    136 1     86.92    26.15      0.00     0.00    1 0.9757897   -22.34522  138.00   1   1.060   0.920    27.15    -0.00 0  0
    137 1     70.67    27.59      0.00     0.00    1 1.0141916   -19.35675  345.00   1   1.060   0.920    27.15    -0.00 0  0
    138 1    115.81    31.34      0.00     0.00    1 0.9855361   -19.64376  345.00   1   1.060   0.920    27.15    -0.00 0  0
    139 1    100.65    28.45      0.00     0.00    1 1.0181804   -25.00942  345.00   1   1.060   0.920    27.19    -0.02 0  0
    140 1    130.33    33.70      0.00     0.00    1 0.9917850    -8.60055  138.00   1   1.060   0.920    27.15    -0.00 0  0
    141 2    119.14    32.71      0.00     0.00    1 1.0200000    -4.61963  345.00   1   1.100   0.980    27.15     0.00 0  0
    142 1     81.26    24.79      0.00     0.00    1 0.9753014   -25.82944  230.00   1   1.060   0.920    27.15    -0.00 0  0
    143 2    113.51    33.28      0.00     0.00    1 1.0200000   -18.18409  230.00   1   1.100   0.980    27.14     0.00 0  0
    144 1    133.13    32.39      0.00     0.00    1 1.0115055   -19.50812  230.00   1   1.060   0.920    27.14    -0.00 0  0
    145 1    105.62    30.16      0.00     0.00    1 0.9896008   -20.14637  138.00   1   1.060   0.920    27.08     0.01 0  0
    146 2    112.44    30.93      0.00     0.00    1 1.0200000   -18.60746  345.00   1   1.100   0.980    27.15     0.00 0  0
    147 1     74.55    22.03      0.00     0.00    1 0.9739227   -23.22097  138.00   1   1.060   0.920    27.15    -0.00 0  0
    148 1     84.33    24.46      0.00     0.00    1 0.9858259   -14.35168  345.00   1   1.060   0.920    27.15    -0.00 0  0
    149 2    136.65    32.21      0.00     0.00    1 1.0200000   -17.62538  138.00   1   1.100   0.980    27.11     0.00 0  0
    150 1    100.29    27.41      0.00     0.00    1 0.9705732   -26.99816  345.00   1   1.060   0.920    27.17    -0.01 0  0
    151 1     86.31    27.38      0.00     0.00    1 1.0161801   -19.14385  345.00   1   1.060   0.920    27.15    -0.00 0  0
    152 1     71.32    20.00      0.00     0.00    1 0.9569921   -25.71034  138.00   1   1.060   0.920    27.15    -0.00 0  0
    153 1     81.29    27.92      0.00     0.00    1 1.0020271   -20.89281  345.00   1   1.060   0.920    27.15    -0.00 0  0
    154 1     98.70    30.61      0.00     0.00    1 0.9845903   -30.61652  230.00   1   1.060   0.920    27.15     0.00 0  0
    155 1     94.76    31.17      0.00     0.00    1 0.9637126   -30.93527  138.00   1   1.060   0.920    27.15     0.00 0  0
    156 1     96.71    29.71      0.00     0.00    1 1.0037672   -24.39626  345.00   1   1.060   0.920    27.15     0.00 0  0
    157 2     98.12    32.68      0.00     0.00    1 1.0200000   -21.77939  138.00   1   1.100   0.980    27.15     0.00 0  0
    158 1     96.74    25.48      0.00     0.00    1 0.9887935   -26.78351  138.00   1   1.060   0.920    27.15    -0.00 0  0
    159 1    103.29    29.79      0.00     0.00    1 1.0012504   -28.51032  345.00   1   1.060   0.920    27.15     0.00 0  0
    160 1    120.58    36.24      0.00     0.00    1 0.9697096   -33.31300  230.00   1   1.060   0.920    27.15     0.00 0  0
    161 1     66.74    20.37      0.00     0.00    1 0.9912970   -27.09944  138.00   1   1.060   0.920    27.15     0.00 0  0
    162 2     94.14    29.45      0.00     0.00    1 1.0200000   -19.52540  345.00   1   1.100   0.980    27.15     0.00 0  0
    163 1    115.04    37.98      0.00     0.00    1 1.0031164   -24.30632  230.00   1   1.060   0.920    27.15     0.00 0  0
    164 1     88.29    30.86      0.00     0.00    1 0.9800890   -25.24360  138.00   1   1.060   0.920    27.15     0.00 0  0
    165 2     94.80    27.96      0.00     0.00    1 1.0200000   -16.42627  230.00   1   1.100   0.980    27.15     0.00 0  0
    166 2     88.85    26.27      0.00     0.00    1 1.0200000   -22.43025  138.00   1   1.100   0.980    27.15     0.00 0  0
    167 1     89.98    25.66      0.00     0.00    1 1.0244115   -36.91019  345.00   1   1.060   0.920    27.15    -0.00 0  0
    168 1     59.66    22.15      0.00     0.00    1 0.9871566   -25.27005  230.00   1   1.060   0.920    27.17    -0.00 0  0
    169 1     89.85    29.08      0.00     0.00    1 0.9901852   -26.75389  138.00   1   1.060   0.920    27.15     0.00 0  0
    170 1     99.29    33.33      0.00     0.00    1 0.9517274   -12.34739  138.00   1   1.060   0.920    27.15    -0.00 0  0
    171 1     86.90    25.40      0.00     0.00    1 0.9606762   -11.88787  138.00   1   1.060   0.920    27.15    -0.00 0  0
    172 1    100.33    31.80      0.00     0.00    1 0.9781160    -9.05327  138.00   1   1.060   0.920    27.15    -0.00 0  0
    173 1     89.42    27.41      0.00     0.00    1 0.9756298    -8.59283  138.00   1   1.060   0.920    27.15    -0.00 0  0
    174 1    106.49    32.60      0.00     0.00    1 1.0113703   -13.67495  345.00   1   1.060   0.920    27.15    -0.00 0  0
    175 2     87.28    29.99      0.00     0.00    1 1.0200000   -13.18294  138.00   1   1.100   0.980    27.15     0.00 0  0
    176 2    104.06    33.31      0.00     0.00    1 1.0200000   -18.48125  345.00   1   1.100   0.980    27.15     0.00 0  0
    177 1    145.05    49.01      0.00     0.00    1 1.0100856   -14.81798  230.00   1   1.060   0.920    27.15    -0.00 0  0
    178 1     79.90    23.79      0.00     0.00    1 0.9931887   -18.15684  138.00   1   1.060   0.920    27.15    -0.00 0  0
    179 1      7.42     2.27      0.00     0.00    1 0.9922460   -18.22311  138.00   1   1.060   0.920    27.15    -0.00 0  0
    180 1     10.99     3.27      0.00     0.00    1 1.0113374   -13.72995  345.00   1   1.060   0.920    27.15    -0.00 0  0
    181 1      0.00     0.00      0.00     0.00    1 1.0296104   -17.59947  345.00   1   1.060   0.920    27.24    -0.08 0  0
    182 1      0.00     0.00      0.00     0.00    1 0.9953407   -22.76764  345.00   1   1.060   0.920    27.17    -0.01 0  0
    183 1      0.00     0.00      0.00     0.00    1 1.0056844   -22.74167  345.00   1   1.060   0.920    27.17    -0.00 0  0
    184 1      0.00     0.00      0.00     0.00    1 1.0135296   -13.17099  230.00   1   1.060   0.920    27.15     0.00 0  0
    185 1      0.00     0.00      0.00     0.00    1 1.0093235   -11.18145  345.00   1   1.060   0.920    27.15    -0.00 0  0
    186 1      0.00     0.00      0.00     0.00    1 1.0090895   -23.27066  345.00   1   1.060   0.920    27.16    -0.00 0  0
    187 1      0.00     0.00      0.00     0.00    1 1.0196120   -21.18490  345.00   1   1.060   0.920    27.16    -0.00 0  0
    188 1      0.00     0.00      0.00     0.00    1 1.0167820    -3.88414  345.00   1   1.060   0.920    27.15    -0.00 0  0
    189 1      0.00     0.00      0.00     0.00    1 1.0165553    -4.52317  345.00   1   1.060   0.920    27.15    -0.00 0  0
    190 1      0.00     0.00      0.00     0.00    1 1.0150621   -10.26543  345.00   1   1.060   0.920    27.15    -0.00 0  0
    191 1      0.00     0.00      0.00     0.00    1 1.0165876   -14.31003  345.00   1   1.060   0.920    27.14     0.00 0  0
    192 1      0.00     0.00      0.00     0.00    1 1.0102793   -18.70539  230.00   1   1.060   0.920    27.14     0.00 0  0
    193 1      0.00     0.00      0.00     0.00    1 1.0130854   -17.72219  345.00   1   1.060   0.920    27.13     0.00 0  0
    194 1      0.00     0.00      0.00     0.00    1 1.0095060   -19.76542  345.00   1   1.060   0.920    27.12     0.01 0  0
    195 1      0.00     0.00      0.00     0.00    1 0.9832591   -21.45663  230.00   1   1.060   0.920    27.15    -0.00 0  0
    196 1      0.00     0.00      0.00     0.00    1 0.9872359   -19.72410  345.00   1   1.060   0.920    27.15    -0.00 0  0
    197 1      0.00     0.00      0.00     0.00    1 0.9886503   -22.04657  230.00   1   1.060   0.920    27.15    -0.00 0  0
    198 1      0.00     0.00      0.00     0.00    1 0.9878780   -19.45439  345.00   1   1.060   0.920    27.15    -0.00 0  0
    199 1      0.00     0.00      0.00     0.00    1 0.9904037   -12.41513  345.00   1   1.060   0.920    27.15    -0.00 0  0
    200 1      0.00     0.00      0.00     0.00    1 1.0118332   -15.40661  345.00   1   1.060   0.920    27.15    -0.00 0  0
...
];

%% generator data 
mpc.gen = [
      1      4.14   -103.00    103.00   -103.00  1.0200    100.00 1    338.00      3.00     81.31   9999.90   -500.00   1500.00   -500.00   1500.00 0 0 0 0   0.0000 0 0 0 0
      3    411.08     -0.38    392.00   -209.00  1.0200    100.00 1    686.00    298.00      0.00      0.00      0.00      0.00      0.00      0.00 0 0 0 0   0.0000 0 0 0 0
      7    191.74    176.98    385.00   -205.00  1.0200    100.00 1    674.00    139.00      0.00      0.00      0.00      0.00      0.00      0.00 0 0 0 0   0.0000 0 0 0 0
      8    260.72    127.11    349.00   -186.00  1.0200    100.00 1    611.00    189.00      0.00      0.00      0.00      0.00      0.00      0.00 0 0 0 0   0.0000 0 0 0 0
     10   2157.77    183.88   1298.00   -692.00  1.0200    100.00 1   2271.00   1406.00      0.00      0.00      0.00      0.00      0.00      0.00 0 0 0 0   0.0000 0 0 0 0
     24    397.28    161.19    309.00   -165.00  1.0200    100.00 1    541.00    288.00      0.00      0.00      0.00      0.00      0.00      0.00 0 0 0 0   0.0000 0 0 0 0
     26    165.53     25.01    171.00    -91.00  1.0200    100.00 1    300.00    120.00      0.00      0.00      0.00      0.00      0.00      0.00 0 0 0 0   0.0000 0 0 0 0
     28    297.96     83.39    338.00   -180.00  1.0200    100.00 1    592.00    216.00      0.00      0.00      0.00      0.00      0.00      0.00 0 0 0 0   0.0000 0 0 0 0
     30    172.43    -29.97    150.00    -80.00  1.0200    100.00 1    263.00    125.00      0.00      0.00      0.00      0.00      0.00      0.00 0 0 0 0   0.0000 0 0 0 0
     31    332.45     47.78    457.00   -244.00  1.0200    100.00 1    800.00    241.00      0.00      0.00      0.00      0.00      0.00      0.00 0 0 0 0   0.0000 0 0 0 0
     32    224.85      4.86    390.00   -208.00  1.0200    100.00 1    683.00    163.00      0.00      0.00      0.00      0.00      0.00      0.00 0 0 0 0   0.0000 0 0 0 0
     33    522.81    222.92    379.00   -202.00  1.0200    100.00 1    664.00    379.00      0.00      0.00      0.00      0.00      0.00      0.00 0 0 0 0   0.0000 0 0 0 0
     34    406.94    120.13    707.00   -377.00  1.0200    100.00 1   1237.00    295.00      0.00      0.00      0.00      0.00      0.00      0.00 0 0 0 0   0.0000 0 0 0 0
     35   1274.61    298.90    792.00   -422.00  1.0200    100.00 1   1386.00    924.00      0.00      0.00      0.00      0.00      0.00      0.00 0 0 0 0   0.0000 0 0 0 0
     36    193.12     86.64    336.00   -179.00  1.0200    100.00 1    588.00    140.00      0.00      0.00      0.00      0.00      0.00      0.00 0 0 0 0   0.0000 0 0 0 0
     37    137.95     55.79    324.00   -173.00  1.0200    100.00 1    567.00    100.00      0.00      0.00      0.00      0.00      0.00      0.00 0 0 0 0   0.0000 0 0 0 0
     38    286.93     20.44    498.00   -266.00  1.0200    100.00 1    872.00    208.00      0.00      0.00      0.00      0.00      0.00      0.00 0 0 0 0   0.0000 0 0 0 0
     49    441.42    105.59    347.00   -185.00  1.0200    100.00 1    607.00    320.00      0.00      0.00      0.00      0.00      0.00      0.00 0 0 0 0   0.0000 0 0 0 0
     52    223.47    177.26    938.00   -500.00  1.0200    100.00 1   1642.00    162.00      0.00      0.00      0.00      0.00      0.00      0.00 0 0 0 0   0.0000 0 0 0 0
     54    286.93     16.86    312.00   -166.00  1.0200    100.00 1    546.00    208.00      0.00      0.00      0.00      0.00      0.00      0.00 0 0 0 0   0.0000 0 0 0 0
     56    573.85    180.97    416.00   -222.00  1.0200    100.00 1    728.00    416.00      0.00      0.00      0.00      0.00      0.00      0.00 0 0 0 0   0.0000 0 0 0 0
     69    205.54    132.69    297.00   -158.00  1.0200    100.00 1    520.00    149.00      0.00      0.00      0.00      0.00      0.00      0.00 0 0 0 0   0.0000 0 0 0 0
     72    117.25    150.00    150.00    -80.00  1.0200    100.00 1    263.00     85.00      0.00      0.00      0.00      0.00      0.00      0.00 0 0 0 0   0.0000 0 0 0 0
     76    600.06    199.91    504.00   -269.00  1.0200    100.00 1    882.00    435.00      0.00      0.00      0.00      0.00      0.00      0.00 0 0 0 0   0.0000 0 0 0 0
     78    179.33    -65.25    165.00    -88.00  1.0200    100.00 1    288.00    130.00      0.00      0.00      0.00      0.00      0.00      0.00 0 0 0 0   0.0000 0 0 0 0
     80    155.88    -66.47    330.00   -176.00  1.0200    100.00 1    578.00    113.00      0.00      0.00      0.00      0.00      0.00      0.00 0 0 0 0   0.0000 0 0 0 0
     82    242.78    -31.11    179.00    -95.00  1.0200    100.00 1    313.00    176.00      0.00      0.00      0.00      0.00      0.00      0.00 0 0 0 0   0.0000 0 0 0 0
     84    233.13     43.73    508.00   -271.00  1.0200    100.00 1    888.00    169.00      0.00      0.00      0.00      0.00      0.00      0.00 0 0 0 0   0.0000 0 0 0 0
    103    286.93    220.56    523.00   -279.00  1.0200    100.00 1    916.00    208.00      0.00      0.00      0.00      0.00      0.00      0.00 0 0 0 0   0.0000 0 0 0 0
    120    222.09    372.80    483.00   -258.00  1.0200    100.00 1    845.00    161.00      0.00      0.00      0.00      0.00      0.00      0.00 0 0 0 0   0.0000 0 0 0 0
    128    248.30     24.63    216.00   -115.00  1.0200    100.00 1    378.00    180.00      0.00      0.00      0.00      0.00      0.00      0.00 0 0 0 0   0.0000 0 0 0 0
    130    158.64    100.52    153.00    -81.00  1.0200    100.00 1    267.00    115.00      0.00      0.00      0.00      0.00      0.00      0.00 0 0 0 0   0.0000 0 0 0 0
    141   1209.78    288.94    967.00   -515.00  1.0200    100.00 1   1691.00    877.00      0.00      0.00      0.00      0.00      0.00      0.00 0 0 0 0   0.0000 0 0 0 0
    143    213.82    114.20    173.00    -92.00  1.0200    100.00 1    303.00    155.00      0.00      0.00      0.00      0.00      0.00      0.00 0 0 0 0   0.0000 0 0 0 0
    146    413.84    312.60    347.00   -185.00  1.0200    100.00 1    607.00    300.00      0.00      0.00      0.00      0.00      0.00      0.00 0 0 0 0   0.0000 0 0 0 0
    149    256.58     54.20    157.00    -83.00  1.0200    100.00 1    274.00    186.00      0.00      0.00      0.00      0.00      0.00      0.00 0 0 0 0   0.0000 0 0 0 0
    157    397.28     83.78    298.00   -159.00  1.0200    100.00 1    521.00    288.00      0.00      0.00      0.00      0.00      0.00      0.00 0 0 0 0   0.0000 0 0 0 0
    162    317.27    114.14    363.00   -194.00  1.0200    100.00 1    636.00    230.00      0.00      0.00      0.00      0.00      0.00      0.00 0 0 0 0   0.0000 0 0 0 0
    165   1078.73     91.94    745.00   -397.00  1.0200    100.00 1   1304.00    782.00      0.00      0.00      0.00      0.00      0.00      0.00 0 0 0 0   0.0000 0 0 0 0
    166    382.11    132.17    474.00   -253.00  1.0200    100.00 1    830.00    277.00      0.00      0.00      0.00      0.00      0.00      0.00 0 0 0 0   0.0000 0 0 0 0
    175    288.31     58.24    358.00   -191.00  1.0200    100.00 1    626.00    209.00      0.00      0.00      0.00      0.00      0.00      0.00 0 0 0 0   0.0000 0 0 0 0
    176    118.63     24.18    153.00    -81.00  1.0200    100.00 1    267.00     86.00      0.00      0.00      0.00      0.00      0.00      0.00 0 0 0 0   0.0000 0 0 0 0
];

%% generator cost data
mpc.gencost = [
2 0 0 4   0.0000    0.001   17.500   450.00
2 0 0 4   0.0000    0.001   24.757  1505.67
2 0 0 4   0.0000    0.002   24.400  3342.77
2 0 0 4   0.0000    0.005   30.562  1114.42
2 0 0 4   0.0000    0.001   25.697  6313.07
2 0 0 4   0.0000    0.002   27.100  1297.89
2 0 0 4   0.0000    0.005   27.249   783.88
2 0 0 4   0.0000    0.002   26.174  1372.76
2 0 0 4   0.0000    0.006   26.053   655.13
2 0 0 4   0.0000    0.002   29.298  3418.85
2 0 0 4   0.0000    0.002   29.135  1458.22
2 0 0 4   0.0000    0.001   23.899  4734.80
2 0 0 4   0.0000    0.004   29.960  3677.05
2 0 0 4   0.0000    0.001   26.605  6691.85
2 0 0 4   0.0000    0.002   26.400  3342.77
2 0 0 4   0.0000    0.004   52.785  7415.02
2 0 0 4   0.0000    0.003   27.114  3844.19
2 0 0 4   0.0000    0.002   25.878  1390.96
2 0 0 4   0.0000    0.003   21.871  2841.36
2 0 0 4   0.0000    0.002   26.558  1284.25
2 0 0 4   0.0000    0.001   24.540  1581.44
2 0 0 4   0.0000    0.002   25.780  3523.95
2 0 0 4   0.0000    0.003   22.330  2325.41
2 0 0 4   0.0000    0.001   25.323  1978.07
2 0 0 4   0.0000    0.005   26.473   732.25
2 0 0 4   0.0000    0.002   26.356  1347.98
2 0 0 4   0.0000    0.008   27.364   550.89
2 0 0 4   0.0000    0.004   31.864  3610.20
2 0 0 4   0.0000    0.001   25.117  2036.75
2 0 0 4   0.0000    0.004   32.314  3777.33
2 0 0 4   0.0000    0.004   26.167   947.57
2 0 0 4   0.0000    0.006   27.791   710.04
2 0 0 4   0.0000    0.003   27.697  4313.07
2 0 0 4   0.0000    0.005   26.616   773.70
2 0 0 4   0.0000    0.002   26.010  1398.04
2 0 0 4   0.0000    0.006   27.475   721.30
2 0 0 4   0.0000    0.006   32.756  1215.71
2 0 0 4   0.0000    0.002   25.916  1460.47
2 0 0 4   0.0000    0.001   26.918  6534.03
2 0 0 4   0.0000    0.001   25.325  1860.51
2 0 0 4   0.0000    0.002   25.962  1438.95
2 0 0 4   0.0000    0.006   27.924   713.43
];

%% branch data
mpc.branch = [
      1       2  0.005978  0.120624   1.98515    414.51    414.51    414.51 1.00000    0.000 1    0.00    0.00      4.14   -103.00     -4.14   -106.37 0 0 0 0
      2      30  0.000000  0.018100   0.00000   1000.00   1000.00   1000.00 1.00000    0.000 1    0.00    0.00   -172.43     35.30    172.43    -29.97 0 0 0 0
      2      39  0.008680  0.060198   0.52937    530.03    530.03    530.03 1.00000    0.000 1    0.00    0.00    221.25    -32.68   -217.21      5.40 0 0 0 0
      2     139  0.003390  0.023178   0.20974    530.03    530.03    530.03 1.00000    0.000 1    0.00    0.00    101.00      8.87   -100.65    -28.45 0 0 0 0
      2     181  0.007607  0.052755   0.46393    530.03    530.03    530.03 1.00000    0.000 1    0.00    0.00   -209.96      9.98    213.23    -36.28 0 0 0 0
      2     201  0.002742  0.018748   0.16965    530.03    530.03    530.03 1.00000    0.000 1    0.00    0.00    -36.85     56.00     37.00    -72.67 0 0 0 0
      3      18  0.003829  0.158129   0.09685    316.20    316.20    316.20 1.00000    0.000 1    0.00    0.00     96.54     24.78    -96.17    -18.96 0 0 0 0
      3     181  0.000638  0.030000   0.00000    400.00    400.00    400.00 1.00000    0.000 1    0.00    0.00    314.53    -25.16   -313.92     53.87 0 0 0 0
      4      75  0.016845  0.038117   0.00951    107.32    107.32    107.32 1.00000    0.000 1    0.00    0.00     23.67     12.99    -23.54    -13.60 0 0 0 0
      4     182  0.000889  0.040000   0.00000    300.00    300.00    300.00 1.00000    0.000 1    0.00    0.00    -97.45    -32.05     97.54     36.43 0 0 0 0
      5       8  0.002959  0.039331   0.08406    578.83    578.83    578.83 1.00000    0.000 1    0.00    0.00   -120.66    -78.61    121.28     78.30 0 0 0 0
      5     183  0.001261  0.046667   0.00000    150.00    150.00    150.00 1.00000    0.000 1    0.00    0.00     11.06    -42.68    -11.03     43.61 0 0 0 0
      5     184  0.045023  0.111012   0.17939    178.87    178.87    178.87 1.00000    0.000 1    0.00    0.00   -128.66     30.35    137.04    -27.62 0 0 0 0
      5     207  0.001124  0.013276   0.03027    541.39    541.39    541.39 1.00000    0.000 1    0.00    0.00    151.42     58.07   -151.11    -57.37 0 0 0 0
      6       7  0.062002  0.145750   0.03365    107.32    107.32    107.32 1.00000    0.000 1    0.00    0.00    111.12    -43.04   -102.60     59.59 0 0 0 0
      6      31  0.000000  0.025000   0.00000   1100.00   1100.00   1100.00 1.00000    0.000 1    0.00    0.00   -332.45    -20.67    332.45     47.78 0 0 0 0
      6      70  0.033638  0.077688   0.01859    107.32    107.32    107.32 1.00000    0.000 1    0.00    0.00    -84.78     43.93     87.81    -38.84 0 0 0 0
      6     184  0.000297  0.014545   0.00000    550.00    550.00    550.00 1.00000    0.000 1    0.00    0.00    233.28    -14.47   -233.13     22.24 0 0 0 0
      6     185  0.000556  0.026667   0.00000    450.00    450.00    450.00 1.00000    0.000 1    0.00    0.00     -5.87      8.68      5.87     -8.65 0 0 0 0
      7     186  0.000336  0.017143   0.00000    700.00    700.00    700.00 1.00000    0.000 1    0.00    0.00    160.98     63.89   -160.88    -58.94 0 0 0 0
      8      54  0.000326  0.005080   0.01216    665.28    665.28    665.28 1.00000    0.000 1    0.00    0.00   -212.47     14.13    212.61    -13.18 0 0 0 0
      8     187  0.000196  0.010000   0.00000    700.00    700.00    700.00 1.00000    0.000 1    0.00    0.00    245.53      2.04   -245.42      3.75 0 0 0 0
    187       9  0.006838  0.047422   0.41703    530.03    530.03    530.03 1.00000    0.000 1    0.00    0.00      0.03    -43.57      0.00      0.00 0 0 0 0
     10      11  0.000315  0.008557   0.00495    566.01    566.01    566.01 1.00000    0.000 1    0.00    0.00    246.53     30.77   -246.34    -26.20 0 0 0 0
     10      32  0.000000  0.020000   0.00000   1000.00   1000.00   1000.00 1.00000    0.000 1    0.00    0.00   -224.85      4.86    224.85      4.86 0 0 0 0
     10      70  0.005799  0.067267   0.02063    324.83    324.83    324.83 1.00000    0.000 1    0.00    0.00    180.01     11.38   -178.20      7.55 0 0 0 0
     10     188  0.000073  0.003750   0.00000   3200.00   3200.00   3200.00 1.00000    0.000 1    0.00    0.00   1875.66    114.29  -1873.17     12.98 0 0 0 0
     12      11  0.001279  0.043500   0.00000    100.00    100.00    100.00 1.00000    0.000 1    0.00    0.00    -38.29     -0.34     38.30      0.95 0 0 0 0
     11     173  0.016673  0.124076   0.03486    237.35    237.35    237.35 1.00000    0.000 1    0.00    0.00    106.94     24.32   -104.99    -13.24 0 0 0 0
     11     189  0.001500  0.060000   0.00000    200.00    200.00    200.00 1.00000    0.000 1    0.00    0.00    101.09      0.93   -100.94      5.00 0 0 0 0
     12      13  0.003529  0.120000   0.00000    100.00    100.00    100.00 1.00000    0.000 1    0.00    0.00     35.89     -0.43    -35.84      1.92 0 0 0 0
    188      13  0.000109  0.001949   0.02003   1045.73   1045.73   1045.73 1.00000    0.000 1    0.00    0.00    546.09      0.18   -545.78      3.37 0 0 0 0
     13     190  0.000846  0.017908   0.26779   1060.07   1060.07   1060.07 1.00000    0.000 1    0.00    0.00    581.62     -5.29   -578.85     36.34 0 0 0 0
     14      15  0.036111  0.089040   0.14388    178.87    178.87    178.87 1.00000    0.000 1    0.00    0.00     74.67    -26.81    -72.58     17.22 0 0 0 0
     14     177  0.018818  0.067761   0.11459    229.46    229.46    229.46 1.00000    0.000 1    0.00    0.00     73.96    -16.64    -72.94      8.56 0 0 0 0
     14     190  0.000233  0.011667   0.00000    600.00    600.00    600.00 1.00000    0.000 1    0.00    0.00   -252.39     10.95    252.53     -3.73 0 0 0 0
     15      61  0.004135  0.027504   0.05200    353.36    353.36    353.36 1.00000    0.000 1    0.00    0.00    112.57    -33.54   -112.02     31.91 0 0 0 0
    184      15  0.003431  0.042042   0.08894    541.39    541.39    541.39 1.00000    0.000 1    0.00    0.00    121.29      0.96   -120.79     -4.02 0 0 0 0
     15     191  0.002059  0.070000   0.00000    100.00    100.00    100.00 1.00000    0.000 1    0.00    0.00    -43.99     -9.88     44.03     11.28 0 0 0 0
     16     149  0.014227  0.046950   0.01231    137.68    137.68    137.68 1.00000    0.000 1    0.00    0.00    -64.98    -10.93     65.59     11.68 0 0 0 0
     16     192  0.001000  0.040000   0.00000    200.00    200.00    200.00 1.00000    0.000 1    0.00    0.00    -24.32    -11.08     24.33     11.36 0 0 0 0
     16     193  0.001116  0.048000   0.00000    250.00    250.00    250.00 1.00000    0.000 1    0.00    0.00    -56.82    -13.64     56.86     15.26 0 0 0 0
     17      18  0.056699  0.194499   0.04709    137.68    137.68    137.68 1.00000    0.000 1    0.00    0.00     -5.90      0.48      5.93     -4.94 0 0 0 0
     17     145  0.046728  0.104525   0.02669    107.32    107.32    107.32 1.00000    0.000 1    0.00    0.00    -25.96      4.94     26.30     -6.76 0 0 0 0
     17     194  0.002162  0.080000   0.00000    150.00    150.00    150.00 1.00000    0.000 1    0.00    0.00    -47.36    -29.92     47.43     32.52 0 0 0 0
     19      20  0.000426  0.020000   0.00000    400.00    400.00    400.00 1.00000    0.000 1    0.00    0.00   -239.88    -36.09    240.14     48.04 0 0 0 0
     19      33  0.000700  0.014200   0.00000   1000.00   1000.00   1000.00 1.00000    0.000 1    0.00    0.00   -400.94   -163.99    402.27    191.06 0 0 0 0
     19      96  0.055097  0.129519   0.02990    107.32    107.32    107.32 1.00000    0.000 1    0.00    0.00     11.21      1.85    -11.14     -4.58 0 0 0 0
     19     105  0.000528  0.012761   0.00724    522.03    522.03    522.03 1.00000    0.000 1    0.00    0.00    210.45     64.51   -210.19    -58.93 0 0 0 0
     19     110  0.005086  0.023707   0.00609    173.53    173.53    173.53 1.00000    0.000 1    0.00    0.00     61.50     23.83    -61.27    -23.37 0 0 0 0
     19     118  0.000642  0.013449   0.00755    474.70    474.70    474.70 1.00000    0.000 1    0.00    0.00    270.23     68.33   -269.72    -58.45 0 0 0 0
     19     175  0.056202  0.251624   0.07017    173.53    173.53    173.53 1.00000    0.000 1    0.00    0.00    -45.05     -1.80     46.21     -0.11 0 0 0 0
     19     195  0.002353  0.080000   0.00000    100.00    100.00    100.00 1.00000    0.000 1    0.00    0.00     38.38     10.49    -38.35     -9.20 0 0 0 0
     19     196  0.003529  0.120000   0.00000    100.00    100.00    100.00 1.00000    0.000 1    0.00    0.00      0.93      4.04     -0.93     -4.01 0 0 0 0
     20      34  0.000900  0.018000   0.00000    600.00    600.00    600.00 1.00000    0.000 1    0.00    0.00   -331.04    -76.33    332.08     97.03 0 0 0 0
     21     129  0.006980  0.035005   0.01005    187.39    187.39    187.39 1.00000    0.000 1    0.00    0.00     87.15     20.61    -86.57    -18.66 0 0 0 0
     21     130  0.007383  0.060698   0.01884    261.01    261.01    261.01 1.00000    0.000 1    0.00    0.00   -109.43    -43.26    110.48     50.01 0 0 0 0
     21     197  0.001441  0.053333   0.00000    150.00    150.00    150.00 1.00000    0.000 1    0.00    0.00    -17.61     -8.72     17.62      8.93 0 0 0 0
     21     198  0.001500  0.060000   0.00000    200.00    200.00    200.00 1.00000    0.000 1    0.00    0.00    -88.72     -2.33     88.84      7.22 0 0 0 0
     22      23  0.013985  0.034482   0.05572    178.87    178.87    178.87 1.00000    0.000 1    0.00    0.00     96.75    -48.26    -95.14     46.73 0 0 0 0
     22      35  0.000000  0.014300   0.00000   1950.00   1950.00   1950.00 1.00000    0.000 1    0.00    0.00  -1274.61    -63.32   1274.61    298.90 0 0 0 0
     22     199  0.000131  0.006667   0.00000   1050.00   1050.00   1050.00 1.00000    0.000 1    0.00    0.00   1063.05     75.17  -1061.54      1.42 0 0 0 0
     23      24  0.043009  0.106048   0.17137    178.87    178.87    178.87 1.00000    0.000 1    0.00    0.00     37.47    -43.71    -36.33     29.09 0 0 0 0
     23      36  0.000500  0.027200   0.00000   1000.00   1000.00   1000.00 1.00000    0.000 1    0.00    0.00   -192.91    -74.93    193.12     86.64 0 0 0 0
     23      90  0.006901  0.020365   0.03648    206.75    206.75    206.75 1.00000    0.000 1    0.00    0.00     73.91     25.26    -73.48    -27.59 0 0 0 0
     23      91  0.012793  0.054395   0.09557    262.53    262.53    262.53 1.00000    0.000 1    0.00    0.00     89.22     21.16    -88.10    -25.71 0 0 0 0
     24     177  0.002078  0.014281   0.02528    353.36    353.36    353.36 1.00000    0.000 1    0.00    0.00    150.30     49.04   -149.80    -48.20 0 0 0 0
     24     200  0.000372  0.017500   0.00000    400.00    400.00    400.00 1.00000    0.000 1    0.00    0.00    178.43     46.47   -178.31    -40.76 0 0 0 0
     25      37  0.000600  0.023200   0.00000   1000.00   1000.00   1000.00 1.00000    0.000 1    0.00    0.00   -137.82    -50.85    137.95     55.79 0 0 0 0
     25     133  0.006133  0.048676   0.09258    395.58    395.58    395.58 1.00000    0.000 1    0.00    0.00     31.86     33.52    -31.71    -41.53 0 0 0 0
     25     168  0.018164  0.045274   0.07160    178.87    178.87    178.87 1.00000    0.000 1    0.00    0.00     60.39     16.85    -59.66    -22.15 0 0 0 0
     25     201  0.001261  0.046667   0.00000    150.00    150.00    150.00 1.00000    0.000 1    0.00    0.00    -24.31    -16.37     24.32     16.76 0 0 0 0
     26      42  0.007136  0.049490   0.43522    530.03    530.03    530.03 1.00000    0.000 1    0.00    0.00    112.14    -35.20   -111.27     -4.01 0 0 0 0
     26      43  0.001333  0.009112   0.08245    530.03    530.03    530.03 1.00000    0.000 1    0.00    0.00     51.10     28.42    -51.06    -36.65 0 0 0 0
     26     202  0.010447  0.072454   0.63716    530.03    530.03    530.03 1.00000    0.000 1    0.00    0.00    -83.66      8.14     84.53    -67.17 0 0 0 0
     27     160  0.022175  0.054676   0.08835    178.87    178.87    178.87 1.00000    0.000 1    0.00    0.00     44.87     15.62    -44.32    -22.77 0 0 0 0
     27     202  0.000519  0.023333   0.00000    300.00    300.00    300.00 1.00000    0.000 1    0.00    0.00   -134.31    -40.38    134.42     45.05 0 0 0 0
     28      77  0.066564  0.156472   0.03612    107.32    107.32    107.32 1.00000    0.000 1    0.00    0.00     45.28     -2.43    -43.97      1.86 0 0 0 0
     28      88  0.001156  0.018601   0.00608    418.29    418.29    418.29 1.00000    0.000 1    0.00    0.00    114.28     42.57   -114.12    -40.53 0 0 0 0
     28     203  0.005926  0.160000   0.00000     50.00     50.00     50.00 1.00000    0.000 1    0.00    0.00      4.02      4.47     -4.02     -4.42 0 0 0 0
     28     204  0.003529  0.120000   0.00000    100.00    100.00    100.00 1.00000    0.000 1    0.00    0.00      3.39      1.58     -3.39     -1.57 0 0 0 0
     29      38  0.000800  0.015600   0.00000   1200.00   1200.00   1200.00 1.00000    0.000 1    0.00    0.00   -286.29     -8.03    286.93     20.44 0 0 0 0
     29      84  0.009549  0.091679   0.02681    283.00    283.00    283.00 1.00000    0.000 1    0.00    0.00     67.23    -11.23    -66.80     12.56 0 0 0 0
     29     205  0.000209  0.010667   0.00000    750.00    750.00    750.00 1.00000    0.000 1    0.00    0.00    137.07     -3.06   -137.03      5.00 0 0 0 0
     39      43  0.005771  0.040026   0.35199    530.03    530.03    530.03 1.00000    0.000 1    0.00    0.00    137.38    -29.65   -136.32      0.56 0 0 0 0
     40      43  0.003602  0.023140   0.23770    530.03    530.03    530.03 1.00000    0.000 1    0.00    0.00    -81.74    -27.05     81.98      4.22 0 0 0 0
    202      41  0.002711  0.018804   0.16536    530.03    530.03    530.03 1.00000    0.000 1    0.00    0.00    107.09     13.95   -106.76    -28.18 0 0 0 0
     42     167  0.006872  0.049342   0.40438    530.03    530.03    530.03 1.00000    0.000 1    0.00    0.00     -7.03    -29.67      7.04    -12.51 0 0 0 0
     44      55  0.007424  0.027027   0.04470    229.46    229.46    229.46 1.00000    0.000 1    0.00    0.00    -42.87     16.19     43.03    -20.16 0 0 0 0
     44     206  0.000372  0.017500   0.00000    400.00    400.00    400.00 1.00000    0.000 1    0.00    0.00    -32.25    -37.70     32.26     38.13 0 0 0 0
     45      52  0.000887  0.008362   0.07659    652.53    652.53    652.53 1.00000    0.000 1    0.00    0.00    -57.25    -48.30     57.30     40.79 0 0 0 0
    206      45  0.000420  0.002856   0.02611    530.03    530.03    530.03 1.00000    0.000 1    0.00    0.00     27.60     14.35    -27.59    -17.02 0 0 0 0
     45     212  0.001035  0.009761   0.08940    652.53    652.53    652.53 1.00000    0.000 1    0.00    0.00    -22.69     35.97     22.71    -44.96 0 0 0 0
     46      47  0.016826  0.106284   0.02894    212.01    212.01    212.01 1.00000    0.000 1    0.00    0.00     54.46     23.22    -53.82    -21.75 0 0 0 0
     46     207  0.000370  0.017778   0.00000    450.00    450.00    450.00 1.00000    0.000 1    0.00    0.00   -151.01    -52.49    151.11     57.37 0 0 0 0
     47      63  0.038101  0.089565   0.02068    107.32    107.32    107.32 1.00000    0.000 1    0.00    0.00    -33.31     -4.61     33.80      3.95 0 0 0 0
     48     150  0.003523  0.024436   0.21489    530.03    530.03    530.03 1.00000    0.000 1    0.00    0.00    100.68      9.68   -100.29    -27.41 0 0 0 0
    182      48  0.003417  0.023699   0.20841    530.03    530.03    530.03 1.00000    0.000 1    0.00    0.00    206.44     33.93   -204.90    -43.57 0 0 0 0
     49      65  0.001800  0.037712   0.02118    474.70    474.70    474.70 1.00000    0.000 1    0.00    0.00    155.16     49.64   -154.70    -42.14 0 0 0 0
     49     208  0.001000  0.040000   0.00000    200.00    200.00    200.00 1.00000    0.000 1    0.00    0.00    108.96     12.94   -108.84     -8.31 0 0 0 0
     49     209  0.001500  0.060000   0.00000    200.00    200.00    200.00 1.00000    0.000 1    0.00    0.00    108.57     19.15   -108.39    -12.14 0 0 0 0
     50      65  0.005258  0.037515   0.01148    237.35    237.35    237.35 1.00000    0.000 1    0.00    0.00    -83.19    -18.13     83.58     19.77 0 0 0 0
     50     210  0.003529  0.120000   0.00000    100.00    100.00    100.00 1.00000    0.000 1    0.00    0.00    -18.01    -11.04     18.03     11.59 0 0 0 0
     51      68  0.004060  0.037344   0.01192    283.00    283.00    283.00 1.00000    0.000 1    0.00    0.00    -63.93     22.79     64.12    -22.25 0 0 0 0
     51      72  0.000709  0.007194   0.00234    304.04    304.04    304.04 1.00000    0.000 1    0.00    0.00    -21.63    -52.71     21.65     52.70 0 0 0 0
    183      52  0.002047  0.021637   0.20301    707.51    707.51    707.51 1.00000    0.000 1    0.00    0.00      2.77    -77.06     -2.67     57.19 0 0 0 0
    206      52  0.000643  0.006662   0.06506    707.51    707.51    707.51 1.00000    0.000 1    0.00    0.00    -59.86    -52.48     59.90     46.12 0 0 0 0
     53      57  0.006894  0.059124   0.01683    261.01    261.01    261.01 1.00000    0.000 1    0.00    0.00     -0.14     51.38      0.34    -51.32 0 0 0 0
     53      73  0.003976  0.033438   0.00991    261.01    261.01    261.01 1.00000    0.000 1    0.00    0.00     45.01    -46.78    -44.84     47.23 0 0 0 0
     53     211  0.000369  0.018462   0.00000    650.00    650.00    650.00 1.00000    0.000 1    0.00    0.00   -202.65    -45.14    202.81     53.30 0 0 0 0
     55      61  0.034539  0.120369   0.21762    229.46    229.46    229.46 1.00000    0.000 1    0.00    0.00    -65.85      6.90     67.44    -23.60 0 0 0 0
    208      55  0.006202  0.018912   0.03169    206.75    206.75    206.75 1.00000    0.000 1    0.00    0.00     93.31      4.66    -92.78     -6.30 0 0 0 0
     55     212  0.001261  0.046667   0.00000    150.00    150.00    150.00 1.00000    0.000 1    0.00    0.00     11.79     -9.26    -11.78      9.37 0 0 0 0
    185      56  0.000908  0.009601   0.09009    707.51    707.51    707.51 1.00000    0.000 1    0.00    0.00    102.65   -125.93   -102.43    119.03 0 0 0 0
    191      56  0.000301  0.008151   0.12418   1246.50   1246.50   1246.50 1.00000    0.000 1    0.00    0.00   -559.42    -16.03    560.33     27.84 0 0 0 0
     57      60  0.018675  0.042258   0.01054    107.32    107.32    107.32 1.00000    0.000 1    0.00    0.00    -64.66     30.30     65.71    -28.89 0 0 0 0
     58      62  0.002141  0.014851   0.13060    530.03    530.03    530.03 1.00000    0.000 1    0.00    0.00    104.06     21.21   -103.81    -32.50 0 0 0 0
     58      66  0.001447  0.010038   0.08828    530.03    530.03    530.03 1.00000    0.000 1    0.00    0.00    -41.34    -35.75     41.38     27.14 0 0 0 0
    185      58  0.002185  0.015152   0.13324    530.03    530.03    530.03 1.00000    0.000 1    0.00    0.00    194.83     23.08   -194.00    -30.77 0 0 0 0
    191      59  0.000938  0.006385   0.05837    530.03    530.03    530.03 1.00000    0.000 1    0.00    0.00    244.88     20.31   -244.33    -22.58 0 0 0 0
     59     213  0.000907  0.006172   0.05642    530.03    530.03    530.03 1.00000    0.000 1    0.00    0.00    161.26     -8.25   -161.03      4.03 0 0 0 0
     60      63  0.017610  0.040671   0.00973    107.32    107.32    107.32 1.00000    0.000 1    0.00    0.00     65.13     -9.49    -64.30     10.53 0 0 0 0
     60      64  0.005655  0.040347   0.01235    237.35    237.35    237.35 1.00000    0.000 1    0.00    0.00   -224.98      7.37    228.11     13.86 0 0 0 0
     61     143  0.002057  0.016137   0.03143    395.58    395.58    395.58 1.00000    0.000 1    0.00    0.00     33.27    -51.60    -33.20     48.92 0 0 0 0
    192      61  0.004667  0.025655   0.04713    312.32    312.32    312.32 1.00000    0.000 1    0.00    0.00    -60.61     -0.41     60.78     -3.49 0 0 0 0
     61     213  0.000519  0.023333   0.00000    300.00    300.00    300.00 1.00000    0.000 1    0.00    0.00   -160.90      9.94    161.03     -4.03 0 0 0 0
     63      75  0.005417  0.046454   0.01323    261.01    261.01    261.01 1.00000    0.000 1    0.00    0.00    -50.73    -41.28     50.98     42.24 0 0 0 0
     64     214  0.000336  0.017143   0.00000    700.00    700.00    700.00 1.00000    0.000 1    0.00    0.00   -394.65    -60.76    395.22     89.77 0 0 0 0
     66      71  0.001271  0.008811   0.07749    530.03    530.03    530.03 1.00000    0.000 1    0.00    0.00   -123.11    -51.56    123.33     45.22 0 0 0 0
     67      68  0.002882  0.026509   0.00846    283.00    283.00    283.00 1.00000    0.000 1    0.00    0.00    -95.20    -28.79     95.49     30.66 0 0 0 0
     68     215  0.000336  0.017143   0.00000    700.00    700.00    700.00 1.00000    0.000 1    0.00    0.00   -272.94    -41.22    273.20     54.41 0 0 0 0
    189      69  0.001131  0.007735   0.06999    530.03    530.03    530.03 1.00000    0.000 1    0.00    0.00     18.70    -51.60    -18.67     44.54 0 0 0 0
     69     247  0.002929  0.020317   0.17866    530.03    530.03    530.03 1.00000    0.000 1    0.00    0.00    158.35     64.85   -157.49    -77.13 0 0 0 0
     71      76  0.001422  0.009863   0.08674    530.03    530.03    530.03 1.00000    0.000 1    0.00    0.00   -194.93    -71.36    195.52     66.52 0 0 0 0
     72      73  0.000275  0.004586   0.00284    424.03    424.03    424.03 1.00000    0.000 1    0.00    0.00     31.96     74.31    -31.94    -74.30 0 0 0 0
    182      74  0.000498  0.003455   0.03038    530.03    530.03    530.03 1.00000    0.000 1    0.00    0.00    177.67      4.99   -177.51     -6.89 0 0 0 0
    210      74  0.001292  0.011415   0.10343    623.25    623.25    623.25 1.00000    0.000 1    0.00    0.00     22.89     67.53    -22.81    -77.18 0 0 0 0
     74     216  0.000640  0.004357   0.03984    530.03    530.03    530.03 1.00000    0.000 1    0.00    0.00    116.40     60.60   -116.29    -63.76 0 0 0 0
     75     216  0.000638  0.030000   0.00000    400.00    400.00    400.00 1.00000    0.000 1    0.00    0.00   -116.17    -58.38    116.29     63.76 0 0 0 0
    190      76  0.001435  0.009955   0.08755    530.03    530.03    530.03 1.00000    0.000 1    0.00    0.00    126.19    -72.16   -125.90     65.08 0 0 0 0
     76     238  0.003386  0.047034   0.46520    868.25    868.25    868.25 1.00000    0.000 1    0.00    0.00    412.87     39.97   -407.19     -8.26 0 0 0 0
     77      84  0.006198  0.069744   0.01841    304.04    304.04    304.04 1.00000    0.000 1    0.00    0.00    -72.14    -30.22     72.53     32.64 0 0 0 0
     77      89  0.016077  0.099621   0.02821    212.01    212.01    212.01 1.00000    0.000 1    0.00    0.00     80.55     29.30    -79.34    -24.47 0 0 0 0
     77     217  0.005926  0.160000   0.00000     50.00     50.00     50.00 1.00000    0.000 1    0.00    0.00    -23.68     -6.34     23.71      7.31 0 0 0 0
     77     218  0.003529  0.120000   0.00000    100.00    100.00    100.00 1.00000    0.000 1    0.00    0.00    -25.21    -19.05     25.25     20.26 0 0 0 0
     78      79  0.014099  0.097781   0.85988    511.35    511.35    511.35 1.00000    0.000 1    0.00    0.00    140.23    -74.33   -137.45      2.55 0 0 0 0
     78     167  0.005724  0.038942   0.35603    530.03    530.03    530.03 1.00000    0.000 1    0.00    0.00    -64.23    -19.87     64.46    -15.79 0 0 0 0
     79      87  0.008106  0.052075   0.53493    530.03    530.03    530.03 1.00000    0.000 1    0.00    0.00      5.06    -39.71     -5.04    -18.17 0 0 0 0
     80      81  0.005975  0.042908   0.35164    530.03    530.03    530.03 1.00000    0.000 1    0.00    0.00    -75.37      1.96     75.72    -35.90 0 0 0 0
     80      87  0.003558  0.071801   1.18166    696.37    696.37    696.37 1.00000    0.000 1    0.00    0.00    121.67    -95.51   -121.12    -19.26 0 0 0 0
     81      82  0.007764  0.053845   0.47351    530.03    530.03    530.03 1.00000    0.000 1    0.00    0.00   -192.62      6.69    195.48    -35.94 0 0 0 0
     82      83  0.007662  0.053138   0.46730    530.03    530.03    530.03 1.00000    0.000 1    0.00    0.00    -34.40    -20.25     34.49    -27.78 0 0 0 0
     83     219  0.005009  0.034736   0.30546    530.03    530.03    530.03 1.00000    0.000 1    0.00    0.00   -120.72     -0.32    121.43    -26.60 0 0 0 0
     84     219  0.000224  0.011429   0.00000   1050.00   1050.00   1050.00 1.00000    0.000 1    0.00    0.00    160.23    -20.55   -160.18     23.41 0 0 0 0
     85     154  0.017306  0.084819   0.15179    289.22    289.22    289.22 1.00000    0.000 1    0.00    0.00    -12.20      4.52     12.25    -19.10 0 0 0 0
    217      85  0.004299  0.043533   0.08806    471.67    471.67    471.67 1.00000    0.000 1    0.00    0.00     62.77     21.22    -62.57    -28.04 0 0 0 0
     86      88  0.044131  0.145633   0.03817    137.68    137.68    137.68 1.00000    0.000 1    0.00    0.00    -19.93    -12.60     20.16      9.57 0 0 0 0
     86     169  0.025279  0.129580   0.03558    187.39    187.39    187.39 1.00000    0.000 1    0.00    0.00    -47.85      6.03     48.46     -6.38 0 0 0 0
     86     220  0.000744  0.032000   0.00000    250.00    250.00    250.00 1.00000    0.000 1    0.00    0.00    -45.29    -25.26     45.31     26.15 0 0 0 0
...